Version 4
SHEET 1 2248 680
WIRE -16 -48 -64 -48
WIRE 336 -48 288 -48
WIRE 672 -48 624 -48
WIRE -64 16 -64 -48
WIRE 288 16 288 -48
WIRE 624 16 624 -48
WIRE -64 160 -64 96
WIRE 288 160 288 96
WIRE 624 160 624 96
FLAG -64 160 0
FLAG -16 -48 sig
FLAG 288 160 0
FLAG 336 -48 carrer
FLAG 624 160 0
FLAG 672 -48 sffm
SYMBOL voltage -64 0 R0
WINDOW 123 0 0 Left 0
WINDOW 39 0 0 Left 0
SYMATTR InstName V1
SYMATTR Value SINE(0 1 100)
SYMBOL voltage 288 0 R0
WINDOW 123 0 0 Left 0
WINDOW 39 0 0 Left 0
SYMATTR InstName V2
SYMATTR Value SINE(0 1 1K)
SYMBOL voltage 624 0 R0
WINDOW 123 0 0 Left 0
WINDOW 39 0 0 Left 0
SYMATTR InstName V3
SYMATTR Value SFFM(0 1 1K 24 100)
TEXT -40 -88 Left 2 !.tran 50m
