Version 4
SHEET 1 2248 680
WIRE -96 144 -96 80
WIRE 304 144 304 80
WIRE -96 384 -96 320
WIRE 304 384 304 320
FLAG -96 144 0
FLAG 304 144 0
FLAG -96 384 0
FLAG 304 384 0
SYMBOL voltage -96 -16 R0
WINDOW 123 0 0 Left 0
WINDOW 39 0 0 Left 0
SYMATTR InstName V1
SYMATTR Value EXP(0 1 5m 1m 30m 1m)
SYMBOL voltage 304 -16 R0
WINDOW 123 0 0 Left 0
WINDOW 39 0 0 Left 0
SYMATTR InstName V2
SYMATTR Value EXP(1 0 5m 2m 30m 1m)
SYMBOL voltage -96 224 R0
WINDOW 123 0 0 Left 0
WINDOW 39 0 0 Left 0
SYMATTR InstName V3
SYMATTR Value EXP(0 1 0 2m 20m 5m)
SYMBOL voltage 304 224 R0
WINDOW 123 0 0 Left 0
WINDOW 39 0 0 Left 0
SYMATTR InstName V4
SYMATTR Value EXP(0 1 3m 1m 20m 1m)
TEXT -136 -160 Left 2 !.tran 50m
